$ MSC.Nastran input file created on March     11, 2019 at 23:24:46 by
$ Patran 2018
$ Direct Text Input for Nastran System Cell Section
$ Direct Text Input for File Management Section
$ Direct Text Input for Executive Control
$ Normal Modes Analysis, Database
SOL 103
CEND
$ Direct Text Input for Global Case Control Data
TITLE = MSC.Nastran job created on 11-Mar-19 at 11:48:46
ECHO = NONE
$ Using Nastran default values for RESVEC
SUBCASE 1
   SUBTITLE=Default
   METHOD = 1
   VECTOR(SORT1,REAL)=ALL
   SPCFORCES(SORT1,REAL)=ALL
$ Direct Text Input for this Subcase
BEGIN BULK
$ Direct Text Input for Bulk Data
PARAM    POST    0
PARAM   PRTMAXIM YES
EIGRL    1                       20      0                       MASS
$ Elements and Element Properties for region : plate
PSHELL   1       1      .005     1               1
$ Pset: "plate" will be imported as: "pshell.1"
CQUAD4   1       1       1       2       9       8
CQUAD4   2       1       2       3       10      9
CQUAD4   3       1       3       4       11      10
CQUAD4   4       1       4       5       12      11
CQUAD4   5       1       5       6       13      12
CQUAD4   6       1       6       7       14      13
CQUAD4   7       1       8       9       16      15
CQUAD4   8       1       9       10      17      16
CQUAD4   9       1       10      11      18      17
CQUAD4   10      1       11      12      19      18
CQUAD4   11      1       12      13      20      19
CQUAD4   12      1       13      14      21      20
CQUAD4   13      1       15      16      23      22
CQUAD4   14      1       16      17      24      23
CQUAD4   15      1       17      18      25      24
CQUAD4   16      1       18      19      26      25
CQUAD4   17      1       19      20      27      26
CQUAD4   18      1       20      21      28      27
CQUAD4   19      1       22      23      30      29
CQUAD4   20      1       23      24      31      30
$ ... 9686 like lines cut
$ Referenced Material Records
$ Material Record : alu
$ Description of Material : Date: 11-Mar-19           Time: 12:19:49
MAT1     1      7.+10           .33     2700.
$ Nodes of the Entire Model
GRID*    1                              3.29999995231628 0.
*       2.01698589324951
GRID*    2                              3.29999995231628 0.
*       1.47496950626373
GRID*    3                              3.29999995231628 0.
*       .932953298091888
GRID*    4                              3.29999995231628 0.
*       .390937179327011
GRID*    5                              3.29999995231628 0.
*       -.15107926726341
GRID*    6                              3.29999995231628 0.
*       -.69309532642364
GRID*    7                              3.29999995231628 0.
*       -1.2351114749908
GRID*    8                              2.73999977111816 0.
*       1.65867924690247
GRID*    9                              2.73999977111816 0.
*       1.2191344499588
GRID*    10                             2.73999977111816 0.
*       .779589712619782
GRID*    11                             2.73999977111816 0.
*       .340044945478439
GRID*    12                             2.73999977111816 0.
*       -.09950002282857
GRID*    13                             2.73999977111816 0.
*       -.53904467821121
GRID*    14                             2.73999977111816 0.
*       -.97858941555023
GRID*    15                             2.17999982833862 0.
*       1.300372838974
GRID*    16                             2.17999982833862 0.
*       .963299453258514
GRID*    17                             2.17999982833862 0.
*       .62622606754303
GRID*    18                             2.17999982833862 0.
*       .289152711629868
GRID*    19                             2.17999982833862 0.
*       -.04792080447077
GRID*    20                             2.17999982833862 0.
*       -.38499397039413
$ ... 17116 like lines cut
$ Loads for Load Case : Default
$ Referenced Coordinate Frames
ENDDATA e1aab638
